wipe
puts "System"
model basic -ndm 3 -ndf 6
puts "restraint"
node 1 0.000E+000 0.000E+000 9.500E+003
node 2 0.000E+000 0.000E+000 1.250E+004
node 3 0.000E+000 4.000E+003 9.500E+003
node 4 0.000E+000 4.000E+003 1.250E+004
node 5 0.000E+000 7.000E+003 9.500E+003
node 6 0.000E+000 7.000E+003 1.250E+004
node 7 5.000E+003 0.000E+000 9.500E+003
node 8 5.000E+003 0.000E+000 1.250E+004
node 9 5.000E+003 4.000E+003 9.500E+003
node 10 5.000E+003 4.000E+003 1.250E+004
node 11 5.000E+003 7.000E+003 9.500E+003
node 12 5.000E+003 7.000E+003 1.250E+004
node 13 9.000E+003 0.000E+000 9.500E+003
node 14 9.000E+003 0.000E+000 1.250E+004
node 15 9.000E+003 4.000E+003 9.500E+003
node 16 9.000E+003 4.000E+003 1.250E+004
node 17 9.000E+003 7.000E+003 9.500E+003
node 18 9.000E+003 7.000E+003 1.250E+004
node 19 0.000E+000 0.000E+000 6.500E+003
node 20 0.000E+000 4.000E+003 6.500E+003
# ... 43 like lines cut
puts "rigidDiaphragm"
puts "mass"
mass 1 7.609E+000 7.609E+000 7.609E+000 0.000E+000 0.000E+000 0.000E+000
mass 2 7.609E+000 7.609E+000 7.609E+000 0.000E+000 0.000E+000 0.000E+000
mass 3 1.004E+001 1.004E+001 1.004E+001 0.000E+000 0.000E+000 0.000E+000
mass 4 1.004E+001 1.004E+001 1.004E+001 0.000E+000 0.000E+000 0.000E+000
mass 5 6.781E+000 6.781E+000 6.781E+000 0.000E+000 0.000E+000 0.000E+000
mass 6 6.781E+000 6.781E+000 6.781E+000 0.000E+000 0.000E+000 0.000E+000
mass 7 1.031E+001 1.031E+001 1.031E+001 0.000E+000 0.000E+000 0.000E+000
mass 8 1.031E+001 1.031E+001 1.031E+001 0.000E+000 0.000E+000 0.000E+000
mass 9 1.443E+001 1.443E+001 1.443E+001 0.000E+000 0.000E+000 0.000E+000
mass 10 1.443E+001 1.443E+001 1.443E+001 0.000E+000 0.000E+000 0.000E+000
mass 11 8.922E+000 8.922E+000 8.922E+000 0.000E+000 0.000E+000 0.000E+000
mass 12 8.922E+000 8.922E+000 8.922E+000 0.000E+000 0.000E+000 0.000E+000
mass 13 6.921E+000 6.921E+000 6.921E+000 0.000E+000 0.000E+000 0.000E+000
mass 14 6.921E+000 6.921E+000 6.921E+000 0.000E+000 0.000E+000 0.000E+000
mass 15 8.935E+000 8.935E+000 8.935E+000 0.000E+000 0.000E+000 0.000E+000
mass 16 8.935E+000 8.935E+000 8.935E+000 0.000E+000 0.000E+000 0.000E+000
mass 17 6.233E+000 6.233E+000 6.233E+000 0.000E+000 0.000E+000 0.000E+000
mass 18 6.233E+000 6.233E+000 6.233E+000 0.000E+000 0.000E+000 0.000E+000
mass 19 7.609E+000 7.609E+000 7.609E+000 0.000E+000 0.000E+000 0.000E+000
mass 20 1.004E+001 1.004E+001 1.004E+001 0.000E+000 0.000E+000 0.000E+000
# ... 43 like lines cut
puts "node"
fix 37 1 1 1 1 1 1;
fix 38 1 1 1 1 1 1;
fix 39 1 1 1 1 1 1;
fix 40 1 1 1 1 1 1;
fix 41 1 1 1 1 1 1;
fix 42 1 1 1 1 1 1;
fix 43 1 1 1 1 1 1;
fix 44 1 1 1 1 1 1;
fix 45 1 1 1 1 1 1;
puts "material"

uniaxialMaterial Steel01 1 400 206000 0.01 
uniaxialMaterial Concrete02 2 -26.8 -0.0015 -10 -0.0033 0.1 2.2 1100

uniaxialMaterial Elastic 3 1.999E+005
uniaxialMaterial Elastic 201 1.056E+010
uniaxialMaterial Elastic 301 1.056E+010
uniaxialMaterial Elastic 401 2.857E+014
uniaxialMaterial Elastic 202 1.094E+009
uniaxialMaterial Elastic 302 1.094E+009
uniaxialMaterial Elastic 402 1.310E+013
##NC400X400 
section Fiber 1 {
fiber -1.600E+002 -1.600E+002 6.400E+003 1
fiber -8.000E+001 -1.600E+002 6.400E+003 1
fiber 0.000E+000 -1.600E+002 6.400E+003 1
fiber 8.000E+001 -1.600E+002 6.400E+003 1
fiber 1.600E+002 -1.600E+002 6.400E+003 1
fiber -1.600E+002 -8.000E+001 6.400E+003 1
fiber -8.000E+001 -8.000E+001 6.400E+003 1
fiber 0.000E+000 -8.000E+001 6.400E+003 1
fiber 8.000E+001 -8.000E+001 6.400E+003 1
fiber 1.600E+002 -8.000E+001 6.400E+003 1
fiber -1.600E+002 0.000E+000 6.400E+003 1
fiber -8.000E+001 0.000E+000 6.400E+003 1
fiber 0.000E+000 0.000E+000 6.400E+003 1
fiber 8.000E+001 0.000E+000 6.400E+003 1
fiber 1.600E+002 0.000E+000 6.400E+003 1
fiber -1.600E+002 8.000E+001 6.400E+003 1
fiber -8.000E+001 8.000E+001 6.400E+003 1
fiber 0.000E+000 8.000E+001 6.400E+003 1
fiber 8.000E+001 8.000E+001 6.400E+003 1
fiber 1.600E+002 8.000E+001 6.400E+003 1
# ... 25 like lines cut
}
##NB200X500 
section Fiber 2 {
fiber -8.000E+001 -2.000E+002 4.000E+003 2
fiber -4.000E+001 -2.000E+002 4.000E+003 2
fiber 0.000E+000 -2.000E+002 4.000E+003 2
fiber 4.000E+001 -2.000E+002 4.000E+003 2
fiber 8.000E+001 -2.000E+002 4.000E+003 2
fiber -8.000E+001 -1.000E+002 4.000E+003 2
fiber -4.000E+001 -1.000E+002 4.000E+003 2
fiber 0.000E+000 -1.000E+002 4.000E+003 2
fiber 4.000E+001 -1.000E+002 4.000E+003 2
fiber 8.000E+001 -1.000E+002 4.000E+003 2
fiber -8.000E+001 0.000E+000 4.000E+003 2
fiber -4.000E+001 0.000E+000 4.000E+003 2
fiber 0.000E+000 0.000E+000 4.000E+003 2
fiber 4.000E+001 0.000E+000 4.000E+003 2
fiber 8.000E+001 0.000E+000 4.000E+003 2
fiber -8.000E+001 1.000E+002 4.000E+003 2
fiber -4.000E+001 1.000E+002 4.000E+003 2
fiber 0.000E+000 1.000E+002 4.000E+003 2
fiber 4.000E+001 1.000E+002 4.000E+003 2
fiber 8.000E+001 1.000E+002 4.000E+003 2
# ... 15 like lines cut
}
section Aggregator 1001 201 Vy 301 Vz 401 T -section 1
section Aggregator 1002 202 Vy 302 Vz 402 T -section 2
puts "transformation"
geomTransf Linear 1 1.000 0.000 0.000 
geomTransf Linear 2 1.000 0.000 0.000 
geomTransf Linear 3 1.000 0.000 0.000 
geomTransf Linear 4 1.000 0.000 0.000 
geomTransf Linear 5 1.000 0.000 0.000 
geomTransf Linear 6 1.000 0.000 0.000 
geomTransf Linear 7 1.000 0.000 0.000 
geomTransf Linear 8 1.000 0.000 0.000 
geomTransf Linear 9 1.000 0.000 0.000 
geomTransf Linear 10 0.000 0.000 1.000 
geomTransf Linear 11 0.000 0.000 1.000 
geomTransf Linear 12 0.000 0.000 1.000 
geomTransf Linear 13 0.000 0.000 1.000 
geomTransf Linear 14 0.000 0.000 1.000 
geomTransf Linear 15 0.000 0.000 1.000 
geomTransf Linear 16 0.000 0.000 1.000 
geomTransf Linear 17 0.000 0.000 1.000 
geomTransf Linear 18 0.000 0.000 1.000 
geomTransf Linear 19 0.000 0.000 1.000 
geomTransf Linear 20 0.000 0.000 1.000 
# ... 106 like lines cut
puts "element"
element nonlinearBeamColumn 1 46 55 3 1001 1
element nonlinearBeamColumn 2 47 56 3 1001 2
element nonlinearBeamColumn 3 48 57 3 1001 3
element nonlinearBeamColumn 4 49 58 3 1001 4
element nonlinearBeamColumn 5 50 59 3 1001 5
element nonlinearBeamColumn 6 51 60 3 1001 6
element nonlinearBeamColumn 7 52 61 3 1001 7
element nonlinearBeamColumn 8 53 62 3 1001 8
element nonlinearBeamColumn 9 54 63 3 1001 9
element nonlinearBeamColumn 10 55 56 3 1002 10
element nonlinearBeamColumn 11 56 57 3 1002 11
element nonlinearBeamColumn 12 58 59 3 1002 12
element nonlinearBeamColumn 13 59 60 3 1002 13
element nonlinearBeamColumn 14 61 62 3 1002 14
element nonlinearBeamColumn 15 62 63 3 1002 15
element nonlinearBeamColumn 16 55 58 3 1002 16
element nonlinearBeamColumn 17 58 61 3 1002 17
element nonlinearBeamColumn 18 56 59 3 1002 18
element nonlinearBeamColumn 19 59 62 3 1002 19
element nonlinearBeamColumn 20 57 60 3 1002 20
# ... 106 like lines cut
puts "recorder"
recorder Node -file node59.out -time -node 59 -dof 1 disp
recorder Node -file node0.out -time -nodeRange 1 63 -dof 1 2 3 disp
recorder Element -file shear.out -time -eleRange 106 114 localForce
puts "gravity"
## Load Case = DEAD
pattern Plain 1 Linear {
eleLoad -ele 10 -type -beamUniform 0 -1.500E+000 0
eleLoad -ele 10 -type -beamUniform 0 -1.500E+000 0
eleLoad -ele 16 -type -beamUniform 0 -1.200E+000 0
eleLoad -ele 16 -type -beamUniform 0 -1.200E+000 0
eleLoad -ele 16 -type -beamUniform 0 -1.200E+000 0
eleLoad -ele 12 -type -beamUniform 0 -1.500E+000 0
eleLoad -ele 12 -type -beamUniform 0 -1.500E+000 0
eleLoad -ele 18 -type -beamUniform 0 -1.200E+000 0
eleLoad -ele 18 -type -beamUniform 0 -1.200E+000 0
eleLoad -ele 18 -type -beamUniform 0 -1.200E+000 0
eleLoad -ele 11 -type -beamUniform 0 -1.125E+000 0
eleLoad -ele 11 -type -beamUniform 0 -1.125E+000 0
eleLoad -ele 18 -type -beamUniform 0 -6.750E-001 0
eleLoad -ele 18 -type -beamUniform 0 -1.800E+000 0
eleLoad -ele 18 -type -beamUniform 0 -6.750E-001 0
eleLoad -ele 13 -type -beamUniform 0 -1.125E+000 0
eleLoad -ele 13 -type -beamUniform 0 -1.125E+000 0
eleLoad -ele 20 -type -beamUniform 0 -6.750E-001 0
eleLoad -ele 20 -type -beamUniform 0 -1.800E+000 0
eleLoad -ele 20 -type -beamUniform 0 -6.750E-001 0
# ... 436 like lines cut
}

puts "analysis"
constraints Plain
numberer Plain
system BandGeneral
test EnergyIncr 1.0e-6 200
algorithm Newton
integrator LoadControl 0.1
analysis Static
analyze 10
loadConst -time 0.0
 
set xDamp 0.05;
set nEigenI 1;
set nEigenJ 2;
set lambdaN [eigen [expr $nEigenJ]];
set lambdaI [lindex $lambdaN [expr $nEigenI-1]];
set lambdaJ [lindex $lambdaN [expr $nEigenJ-1]];
set omegaI [expr pow($lambdaI,0.5)]; 
set omegaJ [expr pow($lambdaJ,0.5)];
set alphaM [expr $xDamp*(2*$omegaI*$omegaJ)/($omegaI+$omegaJ)]; 
set betaKcurr [expr 2.*$xDamp/($omegaI+$omegaJ)];   
rayleigh $alphaM $betaKcurr 0 0  
  
set IDloadTag 1001;
set iGMfile "GM1X.txt";
set iGMdirection "1"; 
set iGMfact "0.6072";  
set dt 0.02;   
foreach GMdirection $iGMdirection GMfile $iGMfile GMfact $iGMfact { 
incr IDloadTag; 
set GMfatt [expr 1*$GMfact];  
set AccelSeries "Series -dt $dt -filePath $iGMfile -factor  $GMfatt";
pattern UniformExcitation  $IDloadTag  $GMdirection -accel  $AccelSeries; 
}  
  
constraints Transformation; 
numberer Plain;  
system UmfPack; 
test NormDispIncr  1.0e-1 1000; 
algorithm Newton 
integrator Newmark 0.5 0.25 
analysis Transient
analyze 3000 0.005
